# Generated by pormake.
# Topology dmp, (4)-cn, num edge types: 1
# Building blocks:
#     Node 0, Type 0, BuildingBlock: N337, # of connection points: 8
#     Node 1, Type 0, BuildingBlock: N337, # of connection points: 8
#     Node 2, Type 0, BuildingBlock: N337, # of connection points: 8
#     Node 3, Type 0, BuildingBlock: N337, # of connection points: 8
#     Edge 4, Type (0, 0), BuildingBlock: [Fr]C1=CC=C(C2=CC=C(C3=CC=C([Fr])C=C3)C=C2)C=C1, # of connection points: 2
#     Edge 5, Type (0, 0), BuildingBlock: [Fr]C1=CC=C(C2=CC=C(C3=CC=C([Fr])C=C3)C=C2)C=C1, # of connection points: 2
#     Edge 6, Type (0, 0), BuildingBlock: [Fr]C1=CC=C(C2=CC=C(C3=CC=C([Fr])C=C3)C=C2)C=C1, # of connection points: 2
#     Edge 7, Type (0, 0), BuildingBlock: [Fr]C1=CC=C(C2=CC=C(C3=CC=C([Fr])C=C3)C=C2)C=C1, # of connection points: 2
#     Edge 8, Type (0, 0), BuildingBlock: [Fr]C1=CC=C(C2=CC=C(C3=CC=C([Fr])C=C3)C=C2)C=C1, # of connection points: 2
#     Edge 9, Type (0, 0), BuildingBlock: [Fr]C1=CC=C(C2=CC=C(C3=CC=C([Fr])C=C3)C=C2)C=C1, # of connection points: 2
#     Edge 10, Type (0, 0), BuildingBlock: [Fr]C1=CC=C(C2=CC=C(C3=CC=C([Fr])C=C3)C=C2)C=C1, # of connection points: 2
#     Edge 11, Type (0, 0), BuildingBlock: [Fr]C1=CC=C(C2=CC=C(C3=CC=C([Fr])C=C3)C=C2)C=C1, # of connection points: 2
# Relax obj value: 0.099
# Max RMSD: 0.187
# Mean RMSD: 0.187
data_example_CIF
_symmetry_space_group_name_H-M    P1
_symmetry_Int_Tables_number       1
_symmetry_cell_setting            triclinic
loop_
_symmetry_equiv_pos_as_xyz
'x, y, z'
_cell_length_a     51.877
_cell_length_b     18.326
_cell_length_c     37.800
_cell_angle_alpha  90.000
_cell_angle_beta   94.784
_cell_angle_gamma  90.000
loop_
_atom_site_label
_atom_site_type_symbol
_atom_site_fract_x
_atom_site_fract_y
_atom_site_fract_z
_atom_type_partial_charge
O0 O 0.42188 0.84555 0.28827 0.0
O1 O 0.42420 0.89069 0.23307 0.0
Lu2 Lu 0.39496 0.76414 0.30902 0.0
O3 O 0.42104 0.92975 0.12171 0.0
O4 O 0.42298 0.83641 0.16021 0.0
O5 O 0.41567 0.68208 0.34558 0.0
O6 O 0.42923 0.62697 0.39698 0.0
O7 O 0.36561 0.86069 0.29933 0.0
O8 O 0.37060 0.87425 0.24114 0.0
Lu9 Lu 0.39099 0.83058 0.19743 0.0
C10 C 0.42925 0.70200 0.24361 0.0
O11 O 0.37171 0.71409 0.26477 0.0
O12 O 0.36027 0.73590 0.20703 0.0
O13 O 0.42724 0.69147 0.27619 0.0
O14 O 0.41520 0.74349 0.22371 0.0
C15 C 0.43088 0.88753 0.26580 0.0
C16 C 0.43117 0.87333 0.13514 0.0
C17 C 0.35989 0.88887 0.26962 0.0
O18 O 0.36337 0.74089 0.39754 0.0
O19 O 0.36111 0.72694 0.33886 0.0
C20 C 0.35789 0.70389 0.23581 0.0
O21 O 0.35780 0.84283 0.15529 0.0
O22 O 0.36126 0.89066 0.10169 0.0
C23 C 0.35240 0.72211 0.36861 0.0
C24 C 0.34904 0.87624 0.12813 0.0
C25 C 0.43164 0.67229 0.37263 0.0
O26 O 0.92188 0.65445 0.78827 0.0
O27 O 0.92420 0.60931 0.73307 0.0
Lu28 Lu 0.89496 0.73586 0.80901 0.0
O29 O 0.92105 0.57025 0.62171 0.0
O30 O 0.92298 0.66359 0.66021 0.0
O31 O 0.91568 0.81792 0.84558 0.0
O32 O 0.92923 0.87303 0.89697 0.0
O33 O 0.86561 0.63931 0.79933 0.0
O34 O 0.87060 0.62575 0.74114 0.0
Lu35 Lu 0.89099 0.66942 0.69742 0.0
C36 C 0.92926 0.79800 0.74361 0.0
O37 O 0.87171 0.78591 0.76477 0.0
O38 O 0.86027 0.76410 0.70703 0.0
O39 O 0.92725 0.80853 0.77619 0.0
O40 O 0.91520 0.75651 0.72371 0.0
C41 C 0.93088 0.61247 0.76580 0.0
C42 C 0.93118 0.62667 0.63514 0.0
C43 C 0.85989 0.61113 0.76962 0.0
O44 O 0.86337 0.75911 0.89754 0.0
O45 O 0.86111 0.77306 0.83886 0.0
C46 C 0.85789 0.79611 0.73581 0.0
O47 O 0.85781 0.65717 0.65529 0.0
O48 O 0.86126 0.60934 0.60169 0.0
C49 C 0.85240 0.77789 0.86861 0.0
C50 C 0.84904 0.62376 0.62813 0.0
C51 C 0.93164 0.82771 0.87263 0.0
O52 O 0.07812 0.34555 0.21173 0.0
O53 O 0.07580 0.39069 0.26693 0.0
Lu54 Lu 0.10504 0.26414 0.19098 0.0
O55 O 0.07896 0.42975 0.37829 0.0
O56 O 0.07702 0.33641 0.33979 0.0
O57 O 0.08433 0.18208 0.15442 0.0
O58 O 0.07077 0.12697 0.10302 0.0
O59 O 0.13439 0.36069 0.20067 0.0
O60 O 0.12940 0.37425 0.25886 0.0
Lu61 Lu 0.10901 0.33058 0.30258 0.0
C62 C 0.07075 0.20200 0.25639 0.0
O63 O 0.12829 0.21409 0.23523 0.0
O64 O 0.13973 0.23590 0.29297 0.0
O65 O 0.07276 0.19147 0.22381 0.0
O66 O 0.08480 0.24349 0.27629 0.0
C67 C 0.06912 0.38753 0.23420 0.0
C68 C 0.06883 0.37333 0.36486 0.0
C69 C 0.14011 0.38887 0.23038 0.0
O70 O 0.13663 0.24089 0.10246 0.0
O71 O 0.13889 0.22694 0.16114 0.0
C72 C 0.14211 0.20389 0.26419 0.0
O73 O 0.14220 0.34283 0.34471 0.0
O74 O 0.13874 0.39066 0.39831 0.0
C75 C 0.14760 0.22211 0.13139 0.0
C76 C 0.15096 0.37624 0.37187 0.0
C77 C 0.06836 0.17229 0.12737 0.0
O78 O 0.57812 0.15445 0.71173 0.0
O79 O 0.57580 0.10931 0.76693 0.0
Lu80 Lu 0.60504 0.23586 0.69098 0.0
O81 O 0.57895 0.07025 0.87829 0.0
O82 O 0.57702 0.16359 0.83979 0.0
O83 O 0.58432 0.31792 0.65442 0.0
O84 O 0.57077 0.37303 0.60302 0.0
O85 O 0.63439 0.13931 0.70067 0.0
O86 O 0.62940 0.12575 0.75886 0.0
Lu87 Lu 0.60901 0.16942 0.80257 0.0
C88 C 0.57074 0.29800 0.75639 0.0
O89 O 0.62829 0.28591 0.73523 0.0
O90 O 0.63973 0.26410 0.79297 0.0
O91 O 0.57275 0.30853 0.72381 0.0
O92 O 0.58480 0.25651 0.77629 0.0
C93 C 0.56912 0.11247 0.73420 0.0
C94 C 0.56882 0.12667 0.86486 0.0
C95 C 0.64011 0.11113 0.73038 0.0
O96 O 0.63663 0.25911 0.60246 0.0
O97 O 0.63889 0.27306 0.66114 0.0
C98 C 0.64211 0.29611 0.76419 0.0
O99 O 0.64219 0.15717 0.84471 0.0
O100 O 0.63874 0.10934 0.89831 0.0
C101 C 0.64760 0.27789 0.63139 0.0
C102 C 0.65096 0.12376 0.87187 0.0
C103 C 0.56836 0.32771 0.62737 0.0
C104 C 0.34760 0.67777 0.23737 0.0
C105 C 0.32687 0.70518 0.21628 0.0
C106 C 0.30272 0.67274 0.21622 0.0
C107 C 0.30002 0.61336 0.23744 0.0
C108 C 0.27447 0.58007 0.23694 0.0
C109 C 0.25782 0.58082 0.20639 0.0
C110 C 0.23344 0.54979 0.20492 0.0
C111 C 0.22473 0.51650 0.23430 0.0
C112 C 0.19907 0.48358 0.23310 0.0
C113 C 0.19460 0.42391 0.25381 0.0
C114 C 0.17086 0.39039 0.25390 0.0
C115 C 0.15011 0.41654 0.23248 0.0
C116 C 0.15424 0.47631 0.21155 0.0
C117 C 0.17816 0.51025 0.21138 0.0
C118 C 0.24142 0.51579 0.26487 0.0
C119 C 0.26570 0.54671 0.26632 0.0
C120 C 0.31991 0.58360 0.25900 0.0
C121 C 0.34399 0.61724 0.25856 0.0
H122 H 0.33050 0.77047 0.19328 0.0
H123 H 0.28023 0.70276 0.19322 0.0
H124 H 0.26691 0.61682 0.17404 0.0
H125 H 0.21581 0.55144 0.17139 0.0
H126 H 0.21697 0.39469 0.27730 0.0
H127 H 0.16690 0.32540 0.27695 0.0
H128 H 0.13180 0.50527 0.18811 0.0
H129 H 0.18210 0.57524 0.18832 0.0
H130 H 0.23236 0.47980 0.29725 0.0
H131 H 0.28331 0.54499 0.29988 0.0
H132 H 0.31608 0.51829 0.28190 0.0
H133 H 0.36638 0.58689 0.28163 0.0
C134 C 0.84749 0.82155 0.73737 0.0
C135 C 0.84162 0.88335 0.71747 0.0
C136 C 0.81737 0.91520 0.71741 0.0
C137 C 0.79958 0.88403 0.73740 0.0
C138 C 0.77421 0.91837 0.73692 0.0
C139 C 0.76360 0.95391 0.70686 0.0
C140 C 0.73959 0.98710 0.70542 0.0
C141 C 0.72514 0.98595 0.73433 0.0
C142 C 0.69979 0.02075 0.73316 0.0
C143 C 0.68079 0.99321 0.75269 0.0
C144 C 0.65651 0.02350 0.75273 0.0
C145 C 0.65028 0.08452 0.73249 0.0
C146 C 0.66910 0.11284 0.71275 0.0
C147 C 0.69360 0.08245 0.71264 0.0
C148 C 0.73578 0.95036 0.76441 0.0
C149 C 0.75971 0.91729 0.76584 0.0
C150 C 0.80428 0.82257 0.75773 0.0
C151 C 0.82880 0.79163 0.75733 0.0
H152 H 0.86160 0.91621 0.69581 0.0
H153 H 0.81108 0.98241 0.69573 0.0
H154 H 0.77902 0.95584 0.67502 0.0
H155 H 0.72859 0.02524 0.67243 0.0
H156 H 0.68723 0.92680 0.77488 0.0
H157 H 0.63640 0.99155 0.77447 0.0
H158 H 0.66254 0.17926 0.69061 0.0
H159 H 0.71371 0.11443 0.69089 0.0
H160 H 0.72039 0.94836 0.79628 0.0
H161 H 0.77067 0.87918 0.79885 0.0
H162 H 0.78416 0.79013 0.77930 0.0
H163 H 0.83494 0.72442 0.77908 0.0
C164 C 0.15256 0.17858 0.26327 0.0
C165 C 0.15565 0.11008 0.24911 0.0
C166 C 0.17997 0.07840 0.25007 0.0
C167 C 0.20064 0.11651 0.26530 0.0
C168 C 0.22603 0.08221 0.26600 0.0
C169 C 0.23198 0.03546 0.23912 0.0
C170 C 0.25586 0.00193 0.23889 0.0
C171 C 0.27487 0.01409 0.26585 0.0
C172 C 0.30013 0.97907 0.26592 0.0
C173 C 0.32196 0.01341 0.28093 0.0
C174 C 0.34632 0.98331 0.28186 0.0
C175 C 0.34970 0.91543 0.26725 0.0
C176 C 0.32803 0.88024 0.25209 0.0
C177 C 0.30343 0.91042 0.25110 0.0
C178 C 0.26889 0.06089 0.29274 0.0
C179 C 0.24510 0.09429 0.29296 0.0
C180 C 0.19879 0.18482 0.27983 0.0
C181 C 0.17413 0.21543 0.27851 0.0
H182 H 0.13254 0.06970 0.23258 0.0
H183 H 0.18323 0.00388 0.23463 0.0
H184 H 0.21154 0.02142 0.20946 0.0
H185 H 0.26175 0.95149 0.20937 0.0
H186 H 0.31865 0.08734 0.29696 0.0
H187 H 0.36957 0.02282 0.29853 0.0
H188 H 0.33147 0.80632 0.23611 0.0
H189 H 0.28019 0.87087 0.23443 0.0
H190 H 0.28931 0.07500 0.32243 0.0
H191 H 0.23925 0.14471 0.32251 0.0
H192 H 0.22202 0.22475 0.29629 0.0
H193 H 0.17104 0.28996 0.29401 0.0
C194 C 0.84987 0.58366 0.76770 0.0
C195 C 0.82914 0.61107 0.74660 0.0
C196 C 0.80499 0.57863 0.74654 0.0
C197 C 0.80229 0.51925 0.76776 0.0
C198 C 0.77674 0.48597 0.76727 0.0
C199 C 0.76009 0.48671 0.73671 0.0
C200 C 0.73571 0.45569 0.73524 0.0
C201 C 0.72701 0.42239 0.76462 0.0
C202 C 0.70134 0.38947 0.76342 0.0
C203 C 0.69687 0.32980 0.78413 0.0
C204 C 0.67313 0.29628 0.78422 0.0
C205 C 0.65238 0.32243 0.76280 0.0
C206 C 0.65651 0.38221 0.74187 0.0
C207 C 0.68043 0.41615 0.74171 0.0
C208 C 0.74369 0.42167 0.79519 0.0
C209 C 0.76798 0.45260 0.79665 0.0
C210 C 0.82219 0.48949 0.78932 0.0
C211 C 0.84626 0.52313 0.78889 0.0
H212 H 0.83277 0.67636 0.72361 0.0
H213 H 0.78250 0.60865 0.72355 0.0
H214 H 0.76918 0.52273 0.70436 0.0
H215 H 0.71808 0.45735 0.70172 0.0
H216 H 0.71924 0.30058 0.80762 0.0
H217 H 0.66917 0.23128 0.80727 0.0
H218 H 0.63407 0.41117 0.71844 0.0
H219 H 0.68437 0.48115 0.71865 0.0
H220 H 0.73463 0.38568 0.82758 0.0
H221 H 0.78558 0.45087 0.83020 0.0
H222 H 0.81835 0.42417 0.81222 0.0
H223 H 0.86865 0.49277 0.81195 0.0
C224 C 0.45120 0.67038 0.38930 0.0
C225 C 0.45685 0.69900 0.42279 0.0
C226 C 0.46903 0.65654 0.44957 0.0
C227 C 0.47524 0.58615 0.44197 0.0
C228 C 0.48801 0.54247 0.47051 0.0
C229 C 0.48282 0.55381 0.50539 0.0
C230 C 0.49456 0.51345 0.53316 0.0
C231 C 0.51213 0.45962 0.52698 0.0
C232 C 0.52465 0.41666 0.55603 0.0
C233 C 0.53172 0.34544 0.55063 0.0
C234 C 0.54359 0.30207 0.57690 0.0
C235 C 0.54893 0.32968 0.61063 0.0
C236 C 0.54197 0.40098 0.61651 0.0
C237 C 0.53000 0.44488 0.59008 0.0
C238 C 0.51731 0.44831 0.49205 0.0
C239 C 0.50561 0.48855 0.46439 0.0
C240 C 0.47012 0.55462 0.40916 0.0
C241 C 0.45787 0.59848 0.38272 0.0
H242 H 0.44976 0.77652 0.43025 0.0
H243 H 0.47513 0.68791 0.48596 0.0
H244 H 0.46373 0.61222 0.51275 0.0
H245 H 0.48854 0.52699 0.57074 0.0
H246 H 0.52606 0.31445 0.51407 0.0
H247 H 0.55096 0.22463 0.56976 0.0
H248 H 0.54768 0.43165 0.65312 0.0
H249 H 0.52263 0.52231 0.59725 0.0
H250 H 0.53640 0.38992 0.48464 0.0
H251 H 0.51166 0.47490 0.42683 0.0
H252 H 0.47729 0.47704 0.40198 0.0
H253 H 0.45183 0.56669 0.34640 0.0
C254 C 0.95092 0.82886 0.88980 0.0
C255 C 0.97611 0.85219 0.88860 0.0
C256 C 0.98791 0.89366 0.91603 0.0
C257 C 0.97405 0.91069 0.94408 0.0
C258 C 0.98683 0.95438 0.97262 0.0
C259 C 0.00525 0.00579 0.96557 0.0
C260 C 0.01777 0.04824 0.99195 0.0
C261 C 0.01226 0.04073 0.02675 0.0
C262 C 0.02533 0.08515 0.05482 0.0
C263 C 0.01285 0.10440 0.08415 0.0
C264 C 0.02410 0.14613 0.11151 0.0
C265 C 0.04911 0.17079 0.11031 0.0
C266 C 0.06190 0.15202 0.08110 0.0
C267 C 0.05062 0.10994 0.05345 0.0
C268 C 0.99382 0.98925 0.03377 0.0
C269 C 0.98135 0.94696 0.00748 0.0
C270 C 0.94894 0.88907 0.94679 0.0
C271 C 0.93752 0.84744 0.91886 0.0
H272 H 0.99078 0.83252 0.85740 0.0
H273 H 0.01531 0.91889 0.91459 0.0
H274 H 0.01156 0.01490 0.92781 0.0
H275 H 0.03766 0.10357 0.98350 0.0
H276 H 0.98561 0.07803 0.08591 0.0
H277 H 0.00972 0.16576 0.14300 0.0
H278 H 0.08914 0.17854 0.07949 0.0
H279 H 0.06501 0.09034 0.02198 0.0
H280 H 0.98749 0.98006 0.07151 0.0
H281 H 0.96146 0.89167 0.01599 0.0
H282 H 0.93443 0.90903 0.97810 0.0
H283 H 0.91012 0.82242 0.92050 0.0
C284 C 0.54926 0.12485 0.88679 0.0
C285 C 0.55058 0.05089 0.89345 0.0
C286 C 0.53818 0.02112 0.92118 0.0
C287 C 0.52473 0.06660 0.94159 0.0
C288 C 0.51187 0.03416 0.97061 0.0
C289 C 0.52222 0.97357 0.98843 0.0
C290 C 0.51056 0.94133 0.01609 0.0
C291 C 0.48787 0.96883 0.02707 0.0
C292 C 0.47539 0.93533 0.05621 0.0
C293 C 0.46130 0.97707 0.07791 0.0
C294 C 0.44906 0.94879 0.10581 0.0
C295 C 0.45061 0.87517 0.11310 0.0
C296 C 0.46466 0.83252 0.09160 0.0
C297 C 0.47702 0.86084 0.06345 0.0
C298 C 0.47753 0.02947 0.00922 0.0
C299 C 0.48915 0.06159 0.98166 0.0
C300 C 0.52272 0.14060 0.93626 0.0
C301 C 0.53535 0.16914 0.90821 0.0
H302 H 0.56551 0.00247 0.87054 0.0
H303 H 0.53968 0.94065 0.92832 0.0
H304 H 0.54695 0.94268 0.97690 0.0
H305 H 0.52224 0.87565 0.03491 0.0
H306 H 0.45940 0.05734 0.07038 0.0
H307 H 0.43390 0.99647 0.12878 0.0
H308 H 0.46649 0.75229 0.09927 0.0
H309 H 0.49218 0.81313 0.04049 0.0
H310 H 0.45280 0.06046 0.02071 0.0
H311 H 0.47744 0.12727 0.96287 0.0
H312 H 0.50773 0.18855 0.95933 0.0
H313 H 0.53377 0.24966 0.90125 0.0
C314 C 0.04964 0.37634 0.38683 0.0
C315 C 0.02371 0.36446 0.39027 0.0
C316 C 0.01180 0.39576 0.41806 0.0
C317 C 0.02630 0.43834 0.44177 0.0
C318 C 0.01340 0.47066 0.47079 0.0
C319 C 0.99316 0.43489 0.48499 0.0
C320 C 0.98046 0.46383 0.51252 0.0
C321 C 0.98763 0.53040 0.52704 0.0
C322 C 0.97440 0.56154 0.55609 0.0
C323 C 0.98751 0.60550 0.58102 0.0
C324 C 0.97614 0.63652 0.60902 0.0
C325 C 0.95036 0.62403 0.61307 0.0
C326 C 0.93692 0.58009 0.58832 0.0
C327 C 0.94832 0.54871 0.56005 0.0
C328 C 0.00789 0.56616 0.51282 0.0
C329 C 0.02054 0.53730 0.48537 0.0
C330 C 0.05216 0.45216 0.43975 0.0
C331 C 0.06367 0.42005 0.41156 0.0
H332 H 0.00834 0.31740 0.36377 0.0
H333 H 0.98360 0.38267 0.42168 0.0
H334 H 0.98502 0.36223 0.46957 0.0
H335 H 0.95857 0.42376 0.52737 0.0
H336 H 0.01559 0.61971 0.57703 0.0
H337 H 0.99122 0.68413 0.63557 0.0
H338 H 0.90884 0.56610 0.59245 0.0
H339 H 0.93322 0.50111 0.53351 0.0
H340 H 0.01606 0.63883 0.52820 0.0
H341 H 0.04243 0.57747 0.47057 0.0
H342 H 0.06736 0.49931 0.46639 0.0
H343 H 0.09188 0.43340 0.40813 0.0
loop_
_geom_bond_atom_site_label_1
_geom_bond_atom_site_label_2
_geom_bond_distance
_geom_bond_site_symmetry_2
_ccdc_geom_bond_type
O0 Lu2 2.230 . S
O0 C15 1.264 . A
O1 Lu9 2.369 . S
O1 C15 1.258 . A
Lu2 O5 2.254 . S
Lu2 O7 2.343 . S
Lu2 O11 2.181 . S
Lu2 O13 2.542 . S
Lu2 O19 2.270 . S
O3 C16 1.248 . D
O4 Lu9 2.266 . S
O4 C16 1.267 . S
O5 C25 1.274 . S
O6 C25 1.253 . D
O7 C17 1.249 . A
O8 Lu9 2.187 . S
O8 C17 1.280 . A
Lu9 O12 2.404 . S
Lu9 O14 2.214 . S
Lu9 O21 2.257 . S
C10 O13 1.259 . A
C10 O14 1.259 . A
O11 C20 1.271 . A
O12 C20 1.251 . A
O18 C23 1.239 . D
O19 C23 1.249 . S
O21 C24 1.248 . S
O22 C24 1.255 . D
O26 Lu28 2.230 . S
O26 C41 1.264 . A
O27 Lu35 2.369 . S
O27 C41 1.258 . A
Lu28 O31 2.254 . S
Lu28 O33 2.343 . S
Lu28 O37 2.181 . S
Lu28 O39 2.542 . S
Lu28 O45 2.270 . S
O29 C42 1.248 . D
O30 Lu35 2.266 . S
O30 C42 1.267 . S
O31 C51 1.274 . S
O32 C51 1.253 . D
O33 C43 1.249 . A
O34 Lu35 2.187 . S
O34 C43 1.280 . A
Lu35 O38 2.404 . S
Lu35 O40 2.214 . S
Lu35 O47 2.257 . S
C36 O39 1.259 . A
C36 O40 1.259 . A
O37 C46 1.271 . A
O38 C46 1.251 . A
O44 C49 1.239 . D
O45 C49 1.249 . S
O47 C50 1.248 . S
O48 C50 1.255 . D
O52 Lu54 2.230 . S
O52 C67 1.264 . A
O53 Lu61 2.369 . S
O53 C67 1.258 . A
Lu54 O57 2.254 . S
Lu54 O59 2.343 . S
Lu54 O63 2.181 . S
Lu54 O65 2.542 . S
Lu54 O71 2.270 . S
O55 C68 1.248 . D
O56 Lu61 2.266 . S
O56 C68 1.267 . S
O57 C77 1.274 . S
O58 C77 1.253 . D
O59 C69 1.249 . A
O60 Lu61 2.187 . S
O60 C69 1.280 . A
Lu61 O64 2.404 . S
Lu61 O66 2.214 . S
Lu61 O73 2.257 . S
C62 O65 1.259 . A
C62 O66 1.259 . A
O63 C72 1.271 . A
O64 C72 1.251 . A
O70 C75 1.239 . D
O71 C75 1.249 . S
O73 C76 1.248 . S
O74 C76 1.255 . D
O78 Lu80 2.230 . S
O78 C93 1.264 . A
O79 Lu87 2.369 . S
O79 C93 1.258 . A
Lu80 O83 2.254 . S
Lu80 O85 2.343 . S
Lu80 O89 2.181 . S
Lu80 O91 2.542 . S
Lu80 O97 2.270 . S
O81 C94 1.248 . D
O82 Lu87 2.266 . S
O82 C94 1.267 . S
O83 C103 1.274 . S
O84 C103 1.253 . D
O85 C95 1.249 . A
O86 Lu87 2.187 . S
O86 C95 1.280 . A
Lu87 O90 2.404 . S
Lu87 O92 2.214 . S
Lu87 O99 2.257 . S
C88 O91 1.259 . A
C88 O92 1.259 . A
O89 C98 1.271 . A
O90 C98 1.251 . A
O96 C101 1.239 . D
O97 C101 1.249 . S
O99 C102 1.248 . S
O100 C102 1.255 . D
C104 C105 1.379 . A
C105 C106 1.386 . A
C106 C107 1.366 . A
C107 C108 1.458 . S
C108 C109 1.383 . A
C109 C110 1.383 . A
C110 C111 1.376 . A
C111 C112 1.459 . S
C112 C113 1.376 . A
C113 C114 1.377 . A
C114 C115 1.378 . A
C115 C116 1.379 . A
C116 C117 1.388 . A
C111 C118 1.385 . A
C118 C119 1.378 . A
C107 C120 1.374 . A
C120 C121 1.394 . A
C121 C104 1.390 . A
C119 C108 1.378 . A
C117 C112 1.393 . A
C105 H122 1.500 . S
C106 H123 1.500 . S
C109 H124 1.500 . S
C110 H125 1.500 . S
C113 H126 1.500 . S
C114 H127 1.500 . S
C116 H128 1.500 . S
C117 H129 1.500 . S
C118 H130 1.500 . S
C119 H131 1.500 . S
C120 H132 1.500 . S
C121 H133 1.500 . S
C134 C135 1.379 . A
C135 C136 1.386 . A
C136 C137 1.366 . A
C137 C138 1.458 . S
C138 C139 1.383 . A
C139 C140 1.383 . A
C140 C141 1.376 . A
C141 C142 1.459 1_565 S
C142 C143 1.376 1_545 A
C143 C144 1.377 1_565 A
C144 C145 1.378 . A
C145 C146 1.379 . A
C146 C147 1.388 . A
C141 C148 1.385 . A
C148 C149 1.378 . A
C137 C150 1.374 . A
C150 C151 1.394 . A
C151 C134 1.390 . A
C149 C138 1.378 . A
C147 C142 1.393 . A
C135 H152 1.500 . S
C136 H153 1.500 . S
C139 H154 1.500 . S
C140 H155 1.500 1_565 S
C143 H156 1.500 . S
C144 H157 1.500 1_545 S
C146 H158 1.500 . S
C147 H159 1.500 . S
C148 H160 1.500 . S
C149 H161 1.500 . S
C150 H162 1.500 . S
C151 H163 1.500 . S
C164 C165 1.379 . A
C165 C166 1.386 . A
C166 C167 1.366 . A
C167 C168 1.458 . S
C168 C169 1.383 . A
C169 C170 1.383 . A
C170 C171 1.376 . A
C171 C172 1.459 1_545 S
C172 C173 1.376 1_565 A
C173 C174 1.377 1_545 A
C174 C175 1.378 . A
C175 C176 1.379 . A
C176 C177 1.388 . A
C171 C178 1.385 . A
C178 C179 1.378 . A
C167 C180 1.374 . A
C180 C181 1.394 . A
C181 C164 1.390 . A
C179 C168 1.378 . A
C177 C172 1.393 . A
C165 H182 1.500 . S
C166 H183 1.500 . S
C169 H184 1.500 . S
C170 H185 1.500 1_545 S
C173 H186 1.500 . S
C174 H187 1.500 1_565 S
C176 H188 1.500 . S
C177 H189 1.500 . S
C178 H190 1.500 . S
C179 H191 1.500 . S
C180 H192 1.500 . S
C181 H193 1.500 . S
C194 C195 1.379 . A
C195 C196 1.386 . A
C196 C197 1.366 . A
C197 C198 1.458 . S
C198 C199 1.383 . A
C199 C200 1.383 . A
C200 C201 1.376 . A
C201 C202 1.459 . S
C202 C203 1.376 . A
C203 C204 1.377 . A
C204 C205 1.378 . A
C205 C206 1.379 . A
C206 C207 1.388 . A
C201 C208 1.385 . A
C208 C209 1.378 . A
C197 C210 1.374 . A
C210 C211 1.394 . A
C211 C194 1.390 . A
C209 C198 1.378 . A
C207 C202 1.393 . A
C195 H212 1.500 . S
C196 H213 1.500 . S
C199 H214 1.500 . S
C200 H215 1.500 . S
C203 H216 1.500 . S
C204 H217 1.500 . S
C206 H218 1.500 . S
C207 H219 1.500 . S
C208 H220 1.500 . S
C209 H221 1.500 . S
C210 H222 1.500 . S
C211 H223 1.500 . S
C224 C225 1.379 . A
C225 C226 1.386 . A
C226 C227 1.366 . A
C227 C228 1.458 . S
C228 C229 1.383 . A
C229 C230 1.383 . A
C230 C231 1.376 . A
C231 C232 1.459 . S
C232 C233 1.376 . A
C233 C234 1.377 . A
C234 C235 1.378 . A
C235 C236 1.379 . A
C236 C237 1.388 . A
C231 C238 1.385 . A
C238 C239 1.378 . A
C227 C240 1.374 . A
C240 C241 1.394 . A
C241 C224 1.390 . A
C239 C228 1.378 . A
C237 C232 1.393 . A
C225 H242 1.500 . S
C226 H243 1.500 . S
C229 H244 1.500 . S
C230 H245 1.500 . S
C233 H246 1.500 . S
C234 H247 1.500 . S
C236 H248 1.500 . S
C237 H249 1.500 . S
C238 H250 1.500 . S
C239 H251 1.500 . S
C240 H252 1.500 . S
C241 H253 1.500 . S
C254 C255 1.379 . A
C255 C256 1.386 . A
C256 C257 1.366 . A
C257 C258 1.458 . S
C258 C259 1.383 1_665 A
C259 C260 1.383 . A
C260 C261 1.376 1_556 A
C261 C262 1.459 . S
C262 C263 1.376 . A
C263 C264 1.377 . A
C264 C265 1.378 . A
C265 C266 1.379 . A
C266 C267 1.388 . A
C261 C268 1.385 1_445 A
C268 C269 1.378 . A
C257 C270 1.374 . A
C270 C271 1.394 . A
C271 C254 1.390 . A
C269 C258 1.378 1_554 A
C267 C262 1.393 . A
C255 H272 1.500 . S
C256 H273 1.500 1_655 S
C259 H274 1.500 . S
C260 H275 1.500 . S
C263 H276 1.500 1_455 S
C264 H277 1.500 . S
C266 H278 1.500 . S
C267 H279 1.500 . S
C268 H280 1.500 . S
C269 H281 1.500 . S
C270 H282 1.500 . S
C271 H283 1.500 . S
C284 C285 1.379 . A
C285 C286 1.386 . A
C286 C287 1.366 . A
C287 C288 1.458 . S
C288 C289 1.383 1_545 A
C289 C290 1.383 1_556 A
C290 C291 1.376 . A
C291 C292 1.459 . S
C292 C293 1.376 . A
C293 C294 1.377 . A
C294 C295 1.378 . A
C295 C296 1.379 . A
C296 C297 1.388 . A
C291 C298 1.385 1_565 A
C298 C299 1.378 1_554 A
C287 C300 1.374 . A
C300 C301 1.394 . A
C301 C284 1.390 . A
C299 C288 1.378 . A
C297 C292 1.393 . A
C285 H302 1.500 . S
C286 H303 1.500 1_545 S
C289 H304 1.500 . S
C290 H305 1.500 . S
C293 H306 1.500 1_565 S
C294 H307 1.500 . S
C296 H308 1.500 . S
C297 H309 1.500 . S
C298 H310 1.500 . S
C299 H311 1.500 . S
C300 H312 1.500 . S
C301 H313 1.500 . S
C314 C315 1.379 . A
C315 C316 1.386 . A
C316 C317 1.366 . A
C317 C318 1.458 . S
C318 C319 1.383 1_455 A
C319 C320 1.383 . A
C320 C321 1.376 . A
C321 C322 1.459 . S
C322 C323 1.376 . A
C323 C324 1.377 . A
C324 C325 1.378 . A
C325 C326 1.379 . A
C326 C327 1.388 . A
C321 C328 1.385 1_655 A
C328 C329 1.378 . A
C317 C330 1.374 . A
C330 C331 1.394 . A
C331 C314 1.390 . A
C329 C318 1.378 . A
C327 C322 1.393 . A
C315 H332 1.500 . S
C316 H333 1.500 1_455 S
C319 H334 1.500 . S
C320 H335 1.500 . S
C323 H336 1.500 1_655 S
C324 H337 1.500 . S
C326 H338 1.500 . S
C327 H339 1.500 . S
C328 H340 1.500 . S
C329 H341 1.500 . S
C330 H342 1.500 . S
C331 H343 1.500 . S
C104 C20 0.723 . S
C115 C69 0.725 . S
C134 C46 0.719 . S
C145 C95 0.718 . S
C164 C72 0.716 . S
C175 C17 0.719 . S
C194 C43 0.723 . S
C205 C98 0.724 . S
C224 C25 1.150 . S
C235 C103 1.145 . S
C254 C51 1.146 . S
C265 C77 1.143 . S
C284 C94 1.363 . S
C295 C16 1.361 . S
C314 C68 1.350 . S
C325 C42 1.352 . S
